Version 4
SHEET 1 880 680
SYMBOL LM358\ Op\ Amp 144 176 R0
SYMATTR InstName U1
