Version 4
SHEET 1 880 1312
WIRE -80 48 -96 48
WIRE 16 48 0 48
WIRE 16 96 16 48
WIRE 128 96 16 96
WIRE 400 96 400 16
WIRE 400 96 224 96
WIRE 128 128 16 128
WIRE 464 128 464 16
WIRE 464 128 432 128
WIRE 128 160 112 160
WIRE -96 176 -96 48
WIRE -80 176 -96 176
WIRE 16 176 16 128
WIRE 16 176 0 176
WIRE 32 176 16 176
WIRE 112 176 112 160
WIRE 112 208 112 176
WIRE 368 208 112 208
WIRE 464 208 464 128
WIRE 464 208 432 208
WIRE -96 240 -96 176
WIRE 256 240 -96 240
WIRE 400 240 400 96
WIRE 400 240 320 240
WIRE 256 272 240 272
WIRE 400 272 400 240
WIRE 400 272 320 272
WIRE 256 320 240 320
WIRE 400 320 400 272
WIRE 400 320 320 320
WIRE 256 368 240 368
WIRE 400 368 400 320
WIRE 400 368 320 368
WIRE 256 416 240 416
WIRE 288 432 288 128
WIRE 304 464 240 464
WIRE 288 512 288 496
WIRE 288 512 240 512
WIRE 304 528 304 464
WIRE -16 560 -48 560
WIRE 304 560 240 560
WIRE 592 560 592 0
WIRE 592 560 560 560
WIRE -48 592 -48 560
WIRE 272 592 -48 592
WIRE 368 592 336 592
WIRE 464 592 464 208
WIRE 464 592 432 592
WIRE 304 640 304 592
WIRE 400 672 400 368
WIRE 400 672 240 672
WIRE 400 736 400 672
WIRE 400 736 240 736
WIRE 368 800 240 800
WIRE 656 800 656 0
WIRE 656 800 624 800
WIRE 368 864 240 864
WIRE 528 864 528 0
WIRE 528 864 496 864
WIRE 400 928 400 736
WIRE 400 928 240 928
WIRE 304 992 304 960
WIRE 304 992 240 992
WIRE 368 992 304 992
WIRE 656 992 624 992
WIRE -192 1056 -256 1056
WIRE -256 1104 -256 1056
WIRE 368 1104 -256 1104
WIRE 464 1104 464 592
WIRE 464 1104 432 1104
WIRE 400 1152 400 928
WIRE 464 1152 464 1104
WIRE 528 1152 528 864
WIRE 592 1152 592 560
WIRE 656 1152 656 992
FLAG 464 1152 0
FLAG 592 0 DATA
IOPIN 592 0 In
FLAG 528 0 CLK
IOPIN 528 0 In
FLAG 656 0 SELECT
IOPIN 656 0 In
FLAG 656 1152 SELECT
IOPIN 656 1152 Out
FLAG 592 1152 DATA
IOPIN 592 1152 Out
FLAG 528 1152 CLK
IOPIN 528 1152 Out
FLAG 400 1152 Vcc
IOPIN 400 1152 Out
FLAG 464 16 GND
IOPIN 464 16 In
SYMBOL Op\ Amp\ Chip 144 112 R0
SYMATTR InstName U1
SYMBOL AND\ Chip 128 448 R0
SYMATTR InstName X1
SYMBOL D\ Flip\ Flop\ Chip -64 720 R0
SYMATTR InstName A1
SYMBOL Vcc 400 16 R0
SYMATTR InstName X2
SYMBOL Misc\\jumper 400 528 R0
WINDOW 0 0 40 Invisible 2
SYMATTR InstName X3
SYMBOL Misc\\jumper 400 144 R0
WINDOW 0 0 40 Invisible 2
SYMATTR InstName X4
SYMBOL Misc\\jumper 400 800 R0
WINDOW 0 0 40 Invisible 2
SYMATTR InstName X7
SYMBOL Misc\\jumper 592 736 R0
WINDOW 0 0 40 Invisible 2
SYMATTR InstName X5
SYMBOL Misc\\jumper 528 736 R0
WINDOW 0 0 40 Invisible 2
SYMATTR InstName X6
SYMBOL Misc\\jumper 464 736 R0
WINDOW 0 0 40 Invisible 2
SYMATTR InstName X8
SYMBOL Misc\\jumper 400 736 R0
WINDOW 0 0 40 Invisible 2
SYMATTR InstName X9
SYMBOL diode 224 144 R270
WINDOW 0 32 32 VTop 2
WINDOW 3 0 32 VBottom 2
SYMATTR InstName D1
SYMBOL res 384 112 R90
WINDOW 0 0 56 VBottom 2
WINDOW 3 32 56 VTop 2
SYMATTR InstName R1
SYMATTR Value 1k
SYMBOL Misc\\jumper 400 64 R0
WINDOW 0 0 40 Invisible 2
SYMATTR InstName X10
SYMBOL Misc\\jumper 368 672 R90
WINDOW 0 0 40 Invisible 2
SYMATTR InstName X11
SYMBOL Misc\\jumper 368 736 R90
WINDOW 0 0 40 Invisible 2
SYMATTR InstName X12
SYMBOL Misc\\jumper 368 800 R90
WINDOW 0 0 40 Invisible 2
SYMATTR InstName X13
SYMBOL Misc\\jumper 368 864 R90
WINDOW 0 0 40 Invisible 2
SYMATTR InstName X14
SYMBOL Misc\\jumper 368 928 R90
WINDOW 0 0 40 Invisible 2
SYMATTR InstName X15
SYMBOL Misc\\jumper 400 928 R0
WINDOW 0 0 40 Invisible 2
SYMATTR InstName X16
SYMBOL Misc\\jumper 464 928 R0
WINDOW 0 0 40 Invisible 2
SYMATTR InstName X17
SYMBOL Misc\\jumper 528 928 R0
WINDOW 0 0 40 Invisible 2
SYMATTR InstName X18
SYMBOL Misc\\jumper 592 928 R0
WINDOW 0 0 40 Invisible 2
SYMATTR InstName X19
SYMBOL Misc\\jumper 464 800 R0
WINDOW 0 0 40 Invisible 2
SYMATTR InstName X20
SYMBOL Potentiometer -16 48 M270
WINDOW 0 56 48 VLeft 2
WINDOW 3 -31 24 Invisible 2
SYMATTR InstName POT
SYMBOL res 128 160 R90
WINDOW 0 0 56 VBottom 2
WINDOW 3 32 56 VTop 2
SYMATTR InstName R2
SYMATTR Value 332k
SYMBOL Misc\\jumper 288 176 R0
WINDOW 0 0 40 Invisible 2
SYMATTR InstName X22
SYMBOL Potentiometer -16 176 M270
WINDOW 0 41 24 VTop 2
WINDOW 3 -31 24 Invisible 2
SYMATTR InstName FSR
SYMBOL diode 304 576 R270
WINDOW 0 32 32 VTop 2
WINDOW 3 0 32 VBottom 2
SYMATTR InstName D2
SYMBOL Misc\\jumper 464 496 R0
WINDOW 0 0 40 Invisible 2
SYMATTR InstName X21
SYMBOL Misc\\jumper 528 496 R0
WINDOW 0 0 40 Invisible 2
SYMATTR InstName X23
SYMBOL Misc\\jumper 400 496 R0
WINDOW 0 0 40 Invisible 2
SYMATTR InstName X24
SYMBOL Misc\\jumper 240 560 R270
WINDOW 0 0 40 Invisible 2
SYMATTR InstName X25
SYMBOL Misc\\jumper 288 208 R0
WINDOW 0 0 40 Invisible 2
SYMATTR InstName X26
SYMBOL Misc\\jumper 288 256 R0
WINDOW 0 0 40 Invisible 2
SYMATTR InstName X27
SYMBOL Misc\\jumper 288 304 R0
WINDOW 0 0 40 Invisible 2
SYMATTR InstName X28
SYMBOL Misc\\jumper 224 464 R270
WINDOW 0 0 40 Invisible 2
SYMATTR InstName X30
SYMBOL Misc\\jumper 400 1040 R0
WINDOW 0 0 40 Invisible 2
SYMATTR InstName X31
SYMBOL Misc\\jumper 304 656 R180
WINDOW 0 0 40 Invisible 2
SYMATTR InstName X29
